<?xml version="1.0" encoding="UTF-8"?>

<!-- generated on 2022-05-27 09:10:41 by Eclipse SUMO GUI Version 1.13.0
<configuration xmlns:xsi="http://www.w3.org/2001/XMLSchema-instance" xsi:noNamespaceSchemaLocation="http://sumo.dlr.de/xsd/sumoConfiguration.xsd">

    <input>
        <net-file value="/Users/behradkoohy/PycharmProjects/routePlanning/sumo-scenarios/InTAS/scenario/ingolstadt.net.xml"/>
        <route-files value="/Users/behradkoohy/PycharmProjects/routePlanning/sumo-scenarios/InTAS/scenario/routes/ped.rou.xml,/Users/behradkoohy/PycharmProjects/routePlanning/sumo-scenarios/InTAS/scenario/routes/BusRoutes.flow.xml,/Users/behradkoohy/PycharmProjects/routePlanning/sumo-scenarios/InTAS/scenario/routes/InTAS_001.rou.xml,/Users/behradkoohy/PycharmProjects/routePlanning/sumo-scenarios/InTAS/scenario/routes/InTAS_002.rou.xml,/Users/behradkoohy/PycharmProjects/routePlanning/sumo-scenarios/InTAS/scenario/routes/InTAS_003.rou.xml,/Users/behradkoohy/PycharmProjects/routePlanning/sumo-scenarios/InTAS/scenario/routes/InTAS_004.rou.xml,/Users/behradkoohy/PycharmProjects/routePlanning/sumo-scenarios/InTAS/scenario/routes/InTAS_005.rou.xml,/Users/behradkoohy/PycharmProjects/routePlanning/sumo-scenarios/InTAS/scenario/routes/InTAS_006.rou.xml,/Users/behradkoohy/PycharmProjects/routePlanning/sumo-scenarios/InTAS/scenario/routes/InTAS_007.rou.xml,/Users/behradkoohy/PycharmProjects/routePlanning/sumo-scenarios/InTAS/scenario/routes/InTAS_008.rou.xml,/Users/behradkoohy/PycharmProjects/routePlanning/sumo-scenarios/InTAS/scenario/routes/InTAS_009.rou.xml,/Users/behradkoohy/PycharmProjects/routePlanning/sumo-scenarios/InTAS/scenario/routes/InTAS_010.rou.xml,/Users/behradkoohy/PycharmProjects/routePlanning/sumo-scenarios/InTAS/scenario/routes/InTAS_011.rou.xml,/Users/behradkoohy/PycharmProjects/routePlanning/sumo-scenarios/InTAS/scenario/routes/InTAS_012.rou.xml,/Users/behradkoohy/PycharmProjects/routePlanning/sumo-scenarios/InTAS/scenario/routes/InTAS_013.rou.xml,/Users/behradkoohy/PycharmProjects/routePlanning/sumo-scenarios/InTAS/scenario/routes/InTAS_014.rou.xml,/Users/behradkoohy/PycharmProjects/routePlanning/sumo-scenarios/InTAS/scenario/routes/InTAS_015.rou.xml,/Users/behradkoohy/PycharmProjects/routePlanning/sumo-scenarios/InTAS/scenario/routes/InTAS_016.rou.xml,/Users/behradkoohy/PycharmProjects/routePlanning/sumo-scenarios/InTAS/scenario/routes/InTAS_017.rou.xml,/Users/behradkoohy/PycharmProjects/routePlanning/sumo-scenarios/InTAS/scenario/routes/InTAS_018.rou.xml,/Users/behradkoohy/PycharmProjects/routePlanning/sumo-scenarios/InTAS/scenario/routes/InTAS_019.rou.xml,/Users/behradkoohy/PycharmProjects/routePlanning/sumo-scenarios/InTAS/scenario/routes/InTAS_020.rou.xml,/Users/behradkoohy/PycharmProjects/routePlanning/sumo-scenarios/InTAS/scenario/routes/InTAS_021.rou.xml,/Users/behradkoohy/PycharmProjects/routePlanning/sumo-scenarios/InTAS/scenario/routes/InTAS_022.rou.xml"/>
        <additional-files value="/Users/behradkoohy/PycharmProjects/routePlanning/sumo-scenarios/InTAS/scenario/BusStations.add.xml,/Users/behradkoohy/PycharmProjects/routePlanning/sumo-scenarios/InTAS/scenario/InTAS_E1.add.xml,/Users/behradkoohy/PycharmProjects/routePlanning/sumo-scenarios/InTAS/scenario/buildings.poly.xml"/>
    </input>

    <output>
        <summary-output value="/Users/behradkoohy/PycharmProjects/routePlanning/sumo-scenarios/InTAS/scenario/InTAS.simulation.summary.xml"/>
        <tripinfo-output value="/Users/behradkoohy/PycharmProjects/routePlanning/sumo-scenarios/InTAS/scenario/InTAS.simulation.tripinfo.xml"/>
        <statistic-output value="/Users/behradkoohy/PycharmProjects/routePlanning/sumo-scenarios/InTAS/scenario/InTAS.simulation.statistic.xml"/>
    </output>

    <time>
        <begin value="0"/>
        <end value="86400"/>
        <step-length value="0.1"/>
    </time>

    <processing>
        <threads value="1"/>
        <route-steps value="200"/>
        <ignore-junction-blocker value="15"/>
        <time-to-teleport value="300"/>
        <time-to-teleport.highways value="300"/>
        <max-depart-delay value="300"/>
        <default.carfollowmodel value="Krauss"/>
        <parking.maneuver value="true"/>
        <pedestrian.model value="striping"/>
        <pedestrian.striping.stripe-width value="0.55"/>
        <pedestrian.striping.jamtime value="30"/>
    </processing>

    <routing>
        <routing-algorithm value="dijkstra"/>
        <persontrip.transfer.car-walk value="allJunctions"/>
        <device.rerouting.probability value="0.82"/>
        <device.rerouting.explicit value="default_001,default_002,default_003,default_004,default_005,default_006,default_007,default_008,default_009,default_010,default_011,default_012,default_013,default_014,default_015,default_016,default_017,default_018,default_019,default_020,default_021,default_022,random_001,random_002,random_003,random_004,random_005,random_006,random_007,random_008,random_009,random_010,random_011,random_012,random_013,random_014,random_015,random_016,random_017,random_018,random_019,random_020,random_021,random_022"/>
        <device.rerouting.period value="300"/>
        <device.rerouting.threads value="1"/>
        <device.rerouting.synchronize value="true"/>
    </routing>

    <report>
        <verbose value="true"/>
        <no-warnings value="true"/>
        <log value="/Users/behradkoohy/PycharmProjects/routePlanning/sumo-scenarios/InTAS/scenario/InTAS.simulation.log"/>
    </report>

    <gui_only>
        <tracker-interval value="0.1"/>
    </gui_only>

</configuration>
-->

<tripinfos xmlns:xsi="http://www.w3.org/2001/XMLSchema-instance" xsi:noNamespaceSchemaLocation="http://sumo.dlr.de/xsd/tripinfo_file.xsd">
    <tripinfo id="h21950c1:1" depart="0.00" departLane="207091132#3_1" departPos="35.98" departSpeed="0.00" departDelay="0.00" arrival="0.10" arrivalLane="207091132#3_1" arrivalPos="35.98" arrivalSpeed="0.00" duration="0.10" routeLength="0.00" waitingTime="0.10" waitingCount="1" stopTime="0.00" timeLoss="0.10" rerouteNo="0" devices="tripinfo_h21950c1:1" vType="default_001" speedFactor="1.02" vaporized=""/>
    <tripinfo id="carIn19028:1" depart="2.60" departLane="10881203_0" departPos="0.00" departSpeed="0.00" departDelay="2.60" arrival="93.50" arrivalLane="gneE119_1" arrivalPos="25.00" arrivalSpeed="1.08" duration="90.90" routeLength="3234.36" waitingTime="0.00" waitingCount="0" stopTime="0.00" timeLoss="18.11" rerouteNo="0" devices="tripinfo_carIn19028:1 routing_carIn19028:1" vType="default_001" speedFactor="0.94" vaporized=""/>
    <tripinfo id="carIn21792:1" depart="5.30" departLane="10881203_0" departPos="0.00" departSpeed="0.00" departDelay="5.30" arrival="135.40" arrivalLane="306793670#1_0" arrivalPos="0.00" arrivalSpeed="0.00" duration="130.10" routeLength="5489.86" waitingTime="0.20" waitingCount="1" stopTime="0.00" timeLoss="20.61" rerouteNo="0" devices="tripinfo_carIn21792:1 routing_carIn21792:1" vType="default_001" speedFactor="1.14" vaporized=""/>
    <tripinfo id="randUni22983:1" depart="52.00" departLane="-28269079#2_1" departPos="21.10" departSpeed="0.00" departDelay="0.00" arrival="140.00" arrivalLane="-26334886_1" arrivalPos="48.59" arrivalSpeed="1.07" duration="88.00" routeLength="769.44" waitingTime="0.00" waitingCount="0" stopTime="0.00" timeLoss="7.60" rerouteNo="0" devices="tripinfo_randUni22983:1" vType="random_001" speedFactor="1.05" vaporized=""/>
    <tripinfo id="carIn18404:1" depart="5.20" departLane="221257620_0" departPos="0.00" departSpeed="0.00" departDelay="5.20" arrival="148.60" arrivalLane="221257625.1575_0" arrivalPos="0.00" arrivalSpeed="0.00" duration="143.40" routeLength="6800.92" waitingTime="0.20" waitingCount="1" stopTime="0.00" timeLoss="20.98" rerouteNo="0" devices="tripinfo_carIn18404:1 routing_carIn18404:1" vType="default_001" speedFactor="0.98" vaporized=""/>
    <tripinfo id="randUni5650:1" depart="16.00" departLane="90587321#0_1" departPos="5.96" departSpeed="0.00" departDelay="0.00" arrival="160.60" arrivalLane="64464420_1" arrivalPos="33.01" arrivalSpeed="0.73" duration="144.60" routeLength="935.33" waitingTime="70.70" waitingCount="2" stopTime="0.00" timeLoss="86.98" rerouteNo="0" devices="tripinfo_randUni5650:1 routing_randUni5650:1" vType="random_001" speedFactor="1.19" vaporized=""/>
    <tripinfo id="carIn46650:1" depart="21.30" departLane="10881203_0" departPos="0.00" departSpeed="0.00" departDelay="21.30" arrival="169.70" arrivalLane="gneE119_1" arrivalPos="25.00" arrivalSpeed="1.06" duration="148.40" routeLength="3234.36" waitingTime="55.40" waitingCount="1" stopTime="0.00" timeLoss="79.35" rerouteNo="0" devices="tripinfo_carIn46650:1 routing_carIn46650:1" vType="default_001" speedFactor="1.13" vaporized=""/>
    <tripinfo id="carIn80851:1" depart="42.30" departLane="10881203_0" departPos="0.00" departSpeed="0.00" departDelay="42.30" arrival="174.80" arrivalLane="306793670#1_0" arrivalPos="0.00" arrivalSpeed="0.00" duration="132.50" routeLength="5489.86" waitingTime="0.10" waitingCount="1" stopTime="0.00" timeLoss="20.15" rerouteNo="0" devices="tripinfo_carIn80851:1" vType="default_001" speedFactor="1.00" vaporized=""/>
    <tripinfo id="carIn96498:1" depart="55.40" departLane="10881203_0" departPos="0.00" departSpeed="0.00" departDelay="55.40" arrival="193.60" arrivalLane="266507534_1" arrivalPos="728.45" arrivalSpeed="1.10" duration="138.20" routeLength="6524.66" waitingTime="0.00" waitingCount="0" stopTime="0.00" timeLoss="20.76" rerouteNo="0" devices="tripinfo_carIn96498:1" vType="default_001" speedFactor="1.06" vaporized=""/>
    <tripinfo id="carIn5600:1" depart="0.00" departLane="221257620_0" departPos="0.00" departSpeed="0.00" departDelay="0.00" arrival="194.80" arrivalLane="gneE119_1" arrivalPos="25.00" arrivalSpeed="1.14" duration="194.80" routeLength="5403.15" waitingTime="40.70" waitingCount="1" stopTime="0.00" timeLoss="63.53" rerouteNo="0" devices="tripinfo_carIn5600:1 routing_carIn5600:1" vType="default_001" speedFactor="1.00" vaporized=""/>
    <tripinfo id="carIn43937:1" depart="10.50" departLane="221257620_0" departPos="0.00" departSpeed="0.00" departDelay="10.50" arrival="197.70" arrivalLane="gneE119_1" arrivalPos="25.00" arrivalSpeed="0.93" duration="187.20" routeLength="5403.15" waitingTime="26.30" waitingCount="1" stopTime="0.00" timeLoss="56.28" rerouteNo="0" devices="tripinfo_carIn43937:1 routing_carIn43937:1" vType="default_001" speedFactor="1.00" vaporized=""/>
    <tripinfo id="carIn70444:1" depart="31.90" departLane="10881203_0" departPos="0.00" departSpeed="0.00" departDelay="31.90" arrival="203.00" arrivalLane="39704922_0" arrivalPos="0.00" arrivalSpeed="0.00" duration="171.10" routeLength="6213.26" waitingTime="0.20" waitingCount="1" stopTime="0.00" timeLoss="29.73" rerouteNo="0" devices="tripinfo_carIn70444:1 routing_carIn70444:1" vType="default_001" speedFactor="1.07" vaporized=""/>
    <tripinfo id="carIn76422:1" depart="34.50" departLane="10881203_0" departPos="0.00" departSpeed="0.00" departDelay="34.50" arrival="206.50" arrivalLane="39704922_0" arrivalPos="0.00" arrivalSpeed="0.00" duration="172.00" routeLength="6213.26" waitingTime="0.20" waitingCount="1" stopTime="0.00" timeLoss="28.65" rerouteNo="0" devices="tripinfo_carIn76422:1 routing_carIn76422:1" vType="default_001" speedFactor="1.02" vaporized=""/>
    <tripinfo id="carIn131168:1" depart="26.50" departLane="320733903#0_1" departPos="0.00" departSpeed="0.00" departDelay="26.50" arrival="215.60" arrivalLane="320733908_1" arrivalPos="351.35" arrivalSpeed="1.14" duration="189.10" routeLength="2628.61" waitingTime="0.00" waitingCount="0" stopTime="0.00" timeLoss="19.89" rerouteNo="0" devices="tripinfo_carIn131168:1 routing_carIn131168:1" vType="default_001" speedFactor="1.01" vaporized=""/>
    <tripinfo id="carIn30046:1" depart="7.80" departLane="221257620_0" departPos="0.00" departSpeed="0.00" departDelay="7.80" arrival="233.10" arrivalLane="39970992#0_0" arrivalPos="0.00" arrivalSpeed="0.00" duration="225.30" routeLength="5377.19" waitingTime="75.20" waitingCount="3" stopTime="0.00" timeLoss="104.80" rerouteNo="0" devices="tripinfo_carIn30046:1 routing_carIn30046:1" vType="default_001" speedFactor="1.25" vaporized=""/>
    <tripinfo id="randUni2403:1" depart="108.00" departLane="23623640_1" departPos="14.84" departSpeed="0.00" departDelay="0.00" arrival="257.00" arrivalLane="37256210#0_1" arrivalPos="20.31" arrivalSpeed="1.06" duration="149.00" routeLength="1610.90" waitingTime="0.00" waitingCount="0" stopTime="0.00" timeLoss="14.46" rerouteNo="0" devices="tripinfo_randUni2403:1 routing_randUni2403:1" vType="random_001" speedFactor="1.00" vaporized=""/>
    <tripinfo id="carIn123404:1" depart="5.20" departLane="-146973236#6_1" departPos="0.00" departSpeed="0.00" departDelay="5.20" arrival="263.30" arrivalLane="-25597196#6_1" arrivalPos="74.95" arrivalSpeed="1.10" duration="258.10" routeLength="3300.65" waitingTime="0.00" waitingCount="0" stopTime="0.00" timeLoss="19.00" rerouteNo="0" devices="tripinfo_carIn123404:1" vType="default_001" speedFactor="1.04" vaporized=""/>
    <tripinfo id="h20338c2:1" depart="0.00" departLane="-26814848#1_1" departPos="81.26" departSpeed="0.00" departDelay="0.00" arrival="265.70" arrivalLane="54606422#3_1" arrivalPos="0.00" arrivalSpeed="0.00" duration="265.70" routeLength="2994.69" waitingTime="44.80" waitingCount="3" stopTime="0.00" timeLoss="73.89" rerouteNo="0" devices="tripinfo_h20338c2:1 routing_h20338c2:1" vType="default_001" speedFactor="1.07" vaporized=""/>
    <tripinfo id="h11860c1:1" depart="0.00" departLane="28133179_1" departPos="97.66" departSpeed="0.00" departDelay="0.00" arrival="268.50" arrivalLane="-315358242#0_1" arrivalPos="144.98" arrivalSpeed="1.15" duration="268.50" routeLength="3362.59" waitingTime="15.30" waitingCount="1" stopTime="0.00" timeLoss="33.44" rerouteNo="0" devices="tripinfo_h11860c1:1 routing_h11860c1:1" vType="default_001" speedFactor="1.04" vaporized=""/>
    <tripinfo id="carIn64237:1" depart="7.90" departLane="380271165#0_1" departPos="0.00" departSpeed="0.00" departDelay="7.90" arrival="281.90" arrivalLane="-137463475#1_1" arrivalPos="22.35" arrivalSpeed="0.74" duration="274.00" routeLength="3052.44" waitingTime="38.90" waitingCount="1" stopTime="0.00" timeLoss="58.88" rerouteNo="1" devices="tripinfo_carIn64237:1 routing_carIn64237:1" vType="default_001" speedFactor="1.02" vaporized=""/>
    <tripinfo id="carIn65594:1" depart="47.20" departLane="-233673422#10_1" departPos="0.00" departSpeed="0.00" departDelay="47.20" arrival="300.60" arrivalLane="54606422#3_1" arrivalPos="0.00" arrivalSpeed="0.00" duration="253.40" routeLength="2835.06" waitingTime="2.30" waitingCount="2" stopTime="0.00" timeLoss="24.71" rerouteNo="0" devices="tripinfo_carIn65594:1 routing_carIn65594:1" vType="default_001" speedFactor="1.08" vaporized=""/>
    <tripinfo id="randUni10146:1" depart="119.00" departLane="115881041#0_1" departPos="29.58" departSpeed="0.00" departDelay="0.00" arrival="305.40" arrivalLane="20266196#1_1" arrivalPos="11.42" arrivalSpeed="1.13" duration="186.40" routeLength="1962.05" waitingTime="0.00" waitingCount="0" stopTime="0.00" timeLoss="9.28" rerouteNo="0" devices="tripinfo_randUni10146:1" vType="random_001" speedFactor="0.88" vaporized=""/>
    <tripinfo id="carIn118759:1" depart="122.00" departLane="-139516077#0_0" departPos="0.00" departSpeed="0.00" departDelay="0.00" arrival="312.50" arrivalLane="320733908_1" arrivalPos="78.95" arrivalSpeed="1.02" duration="190.50" routeLength="3059.64" waitingTime="0.00" waitingCount="0" stopTime="0.00" timeLoss="25.68" rerouteNo="0" devices="tripinfo_carIn118759:1" vType="default_001" speedFactor="1.03" vaporized=""/>
    <tripinfo id="randUni10578:1" depart="150.00" departLane="-25796375#2_1" departPos="87.06" departSpeed="0.00" departDelay="0.00" arrival="314.30" arrivalLane="266565295#2_1" arrivalPos="46.06" arrivalSpeed="0.91" duration="164.30" routeLength="1575.02" waitingTime="25.70" waitingCount="1" stopTime="0.00" timeLoss="42.59" rerouteNo="0" devices="tripinfo_randUni10578:1" vType="random_001" speedFactor="0.96" vaporized=""/>
    <tripinfo id="carIn92214:1" depart="18.40" departLane="-139516077#0_0" departPos="0.00" departSpeed="0.00" departDelay="18.40" arrival="318.10" arrivalLane="220012723_1" arrivalPos="48.96" arrivalSpeed="0.94" duration="299.70" routeLength="4068.68" waitingTime="23.50" waitingCount="1" stopTime="0.00" timeLoss="69.60" rerouteNo="0" devices="tripinfo_carIn92214:1 routing_carIn92214:1" vType="default_001" speedFactor="0.97" vaporized=""/>
    <tripinfo id="h10148c2:1" depart="0.00" departLane="-25797433#2_1" departPos="25.29" departSpeed="0.00" departDelay="0.00" arrival="320.40" arrivalLane="221257625.1575_0" arrivalPos="0.00" arrivalSpeed="0.00" duration="320.40" routeLength="6356.60" waitingTime="37.50" waitingCount="3" stopTime="0.00" timeLoss="73.13" rerouteNo="1" devices="tripinfo_h10148c2:1 routing_h10148c2:1" vType="default_001" speedFactor="0.93" vaporized=""/>
    <tripinfo id="carIn111091:1" depart="23.80" departLane="320733903#0_1" departPos="0.00" departSpeed="0.00" departDelay="23.80" arrival="320.40" arrivalLane="-201894096#3_1" arrivalPos="165.40" arrivalSpeed="0.81" duration="296.60" routeLength="3761.89" waitingTime="38.10" waitingCount="1" stopTime="0.00" timeLoss="83.29" rerouteNo="1" devices="tripinfo_carIn111091:1 routing_carIn111091:1" vType="default_001" speedFactor="1.02" vaporized=""/>
    <tripinfo id="h16381c2:1" depart="0.00" departLane="-144654970_1" departPos="91.76" departSpeed="0.00" departDelay="0.00" arrival="322.50" arrivalLane="221257625.1575_1" arrivalPos="0.00" arrivalSpeed="0.00" duration="322.50" routeLength="6873.07" waitingTime="41.10" waitingCount="2" stopTime="0.00" timeLoss="81.95" rerouteNo="0" devices="tripinfo_h16381c2:1 routing_h16381c2:1" vType="default_001" speedFactor="1.12" vaporized=""/>
    <tripinfo id="carIn87069:1" depart="21.10" departLane="320733903#0_1" departPos="0.00" departSpeed="0.00" departDelay="21.10" arrival="323.80" arrivalLane="107431496#4_1" arrivalPos="0.00" arrivalSpeed="0.00" duration="302.70" routeLength="4672.56" waitingTime="16.00" waitingCount="2" stopTime="0.00" timeLoss="59.34" rerouteNo="0" devices="tripinfo_carIn87069:1 routing_carIn87069:1" vType="default_001" speedFactor="1.15" vaporized=""/>
    <tripinfo id="carIn116271:1" depart="39.60" departLane="32976551_0" departPos="0.00" departSpeed="0.00" departDelay="39.60" arrival="324.20" arrivalLane="39970992#0_0" arrivalPos="0.00" arrivalSpeed="0.00" duration="284.60" routeLength="4516.63" waitingTime="91.70" waitingCount="3" stopTime="0.00" timeLoss="139.74" rerouteNo="0" devices="tripinfo_carIn116271:1 routing_carIn116271:1" vType="default_001" speedFactor="1.14" vaporized=""/>
    <tripinfo id="carIn105357:1" depart="195.00" departLane="10881203_0" departPos="0.00" departSpeed="0.00" departDelay="0.00" arrival="351.60" arrivalLane="gneE119_1" arrivalPos="25.00" arrivalSpeed="0.81" duration="156.60" routeLength="3234.36" waitingTime="62.20" waitingCount="1" stopTime="0.00" timeLoss="85.75" rerouteNo="0" devices="tripinfo_carIn105357:1 routing_carIn105357:1" vType="default_001" speedFactor="1.03" vaporized=""/>
    <tripinfo id="randUni25050:1" depart="117.00" departLane="-29238188#0_1" departPos="4.42" departSpeed="0.00" departDelay="0.00" arrival="351.80" arrivalLane="-24983010#0_1" arrivalPos="27.57" arrivalSpeed="0.77" duration="234.80" routeLength="1909.17" waitingTime="90.90" waitingCount="3" stopTime="0.00" timeLoss="126.79" rerouteNo="1" devices="tripinfo_randUni25050:1 routing_randUni25050:1" vType="random_001" speedFactor="1.26" vaporized=""/>
    <tripinfo id="randUni2386:1" depart="265.00" departLane="20405621#0_1" departPos="4.65" departSpeed="0.00" departDelay="0.00" arrival="360.60" arrivalLane="72883541#1_1" arrivalPos="8.85" arrivalSpeed="0.95" duration="95.60" routeLength="1186.86" waitingTime="0.00" waitingCount="0" stopTime="0.00" timeLoss="9.97" rerouteNo="0" devices="tripinfo_randUni2386:1 routing_randUni2386:1" vType="random_001" speedFactor="1.15" vaporized=""/>
    <tripinfo id="carIn15717:1" depart="47.00" departLane="-54606422#4_1" departPos="0.00" departSpeed="0.00" departDelay="0.00" arrival="364.30" arrivalLane="233673422#9_1" arrivalPos="230.00" arrivalSpeed="0.80" duration="317.30" routeLength="3044.95" waitingTime="0.00" waitingCount="0" stopTime="0.00" timeLoss="9.05" rerouteNo="0" devices="tripinfo_carIn15717:1 routing_carIn15717:1" vType="default_001" speedFactor="0.85" vaporized=""/>
    <tripinfo id="h13328c2:1" depart="0.00" departLane="-32350901#1_1" departPos="40.32" departSpeed="0.00" departDelay="0.00" arrival="372.40" arrivalLane="-39227661#0_1" arrivalPos="0.00" arrivalSpeed="0.00" duration="372.40" routeLength="3899.35" waitingTime="54.80" waitingCount="2" stopTime="0.00" timeLoss="88.65" rerouteNo="1" devices="tripinfo_h13328c2:1 routing_h13328c2:1" vType="default_001" speedFactor="1.03" vaporized=""/>
    <tripinfo id="carIn93435:1" depart="23.70" departLane="-139516077#0_0" departPos="0.00" departSpeed="0.00" departDelay="23.70" arrival="374.60" arrivalLane="-320733910#1_1" arrivalPos="59.89" arrivalSpeed="0.85" duration="350.90" routeLength="4174.53" waitingTime="0.00" waitingCount="0" stopTime="0.00" timeLoss="96.65" rerouteNo="1" devices="tripinfo_carIn93435:1 routing_carIn93435:1" vType="default_001" speedFactor="0.95" vaporized=""/>
    <tripinfo id="carIn131232:1" depart="181.00" departLane="266507542_0" departPos="0.00" departSpeed="0.00" departDelay="0.00" arrival="375.00" arrivalLane="gneE119_1" arrivalPos="25.00" arrivalSpeed="1.11" duration="194.00" routeLength="3303.87" waitingTime="27.20" waitingCount="2" stopTime="0.00" timeLoss="52.29" rerouteNo="0" devices="tripinfo_carIn131232:1 routing_carIn131232:1" vType="default_001" speedFactor="0.99" vaporized=""/>
    <tripinfo id="randUni16685:1" depart="144.00" departLane="38573376#0_1" departPos="27.64" departSpeed="0.00" departDelay="0.00" arrival="376.20" arrivalLane="-26339179#6_1" arrivalPos="5.54" arrivalSpeed="0.96" duration="232.20" routeLength="2815.02" waitingTime="29.00" waitingCount="3" stopTime="0.00" timeLoss="61.64" rerouteNo="0" devices="tripinfo_randUni16685:1" vType="random_001" speedFactor="1.07" vaporized=""/>
    <tripinfo id="carIn31687:1" depart="13.30" departLane="10881203_0" departPos="0.00" departSpeed="0.00" departDelay="13.30" arrival="377.20" arrivalLane="-39227661#0_1" arrivalPos="0.00" arrivalSpeed="0.00" duration="363.90" routeLength="8672.31" waitingTime="0.20" waitingCount="1" stopTime="0.00" timeLoss="36.50" rerouteNo="1" devices="tripinfo_carIn31687:1 routing_carIn31687:1" vType="default_001" speedFactor="1.02" vaporized=""/>
    <tripinfo id="carIn33466:1" depart="15.90" departLane="10881203_0" departPos="0.00" departSpeed="0.00" departDelay="15.90" arrival="380.40" arrivalLane="-39227661#0_1" arrivalPos="0.00" arrivalSpeed="0.00" duration="364.50" routeLength="8672.31" waitingTime="0.20" waitingCount="1" stopTime="0.00" timeLoss="67.62" rerouteNo="1" devices="tripinfo_carIn33466:1 routing_carIn33466:1" vType="default_001" speedFactor="1.18" vaporized=""/>
    <tripinfo id="randUni22943:1" depart="246.00" departLane="168245119#0_1" departPos="89.03" departSpeed="0.00" departDelay="0.00" arrival="389.30" arrivalLane="-201953160#4_1" arrivalPos="95.89" arrivalSpeed="1.09" duration="143.30" routeLength="862.73" waitingTime="59.50" waitingCount="2" stopTime="0.00" timeLoss="79.05" rerouteNo="0" devices="tripinfo_randUni22943:1 routing_randUni22943:1" vType="random_001" speedFactor="1.03" vaporized=""/>
    <tripinfo id="h15897c1:1" depart="0.00" departLane="-150746347#2_1" departPos="262.44" departSpeed="0.00" departDelay="0.00" arrival="391.50" arrivalLane="gneE178_1" arrivalPos="0.00" arrivalSpeed="0.00" duration="391.50" routeLength="4258.65" waitingTime="35.80" waitingCount="3" stopTime="0.00" timeLoss="54.90" rerouteNo="0" devices="tripinfo_h15897c1:1 routing_h15897c1:1" vType="default_001" speedFactor="0.89" vaporized=""/>
    <tripinfo id="carIn65270:1" depart="139.00" departLane="gneE179_1" departPos="0.00" departSpeed="0.00" departDelay="0.00" arrival="395.20" arrivalLane="139516077#0_0" arrivalPos="0.00" arrivalSpeed="0.00" duration="256.20" routeLength="3842.77" waitingTime="0.20" waitingCount="1" stopTime="0.00" timeLoss="25.13" rerouteNo="0" devices="tripinfo_carIn65270:1 routing_carIn65270:1" vType="default_001" speedFactor="0.93" vaporized=""/>
    <tripinfo id="carIn50777:1" depart="7.90" departLane="23128564#0_1" departPos="0.00" departSpeed="0.00" departDelay="7.90" arrival="395.80" arrivalLane="306793670#1_0" arrivalPos="0.00" arrivalSpeed="0.00" duration="387.90" routeLength="3634.12" waitingTime="76.80" waitingCount="4" stopTime="0.00" timeLoss="115.79" rerouteNo="0" devices="tripinfo_carIn50777:1 routing_carIn50777:1" vType="default_001" speedFactor="0.92" vaporized=""/>
    <tripinfo id="carIn130062:1" depart="15.70" departLane="23128564#0_1" departPos="0.00" departSpeed="0.00" departDelay="15.70" arrival="398.00" arrivalLane="306793670#1_1" arrivalPos="0.00" arrivalSpeed="0.00" duration="382.30" routeLength="3631.22" waitingTime="62.20" waitingCount="4" stopTime="0.00" timeLoss="93.23" rerouteNo="1" devices="tripinfo_carIn130062:1 routing_carIn130062:1" vType="default_001" speedFactor="0.87" vaporized=""/>
    <tripinfo id="h8487c2:1" depart="0.00" departLane="176550249#4_1" departPos="238.95" departSpeed="0.00" departDelay="0.00" arrival="400.10" arrivalLane="-325180705#3_1" arrivalPos="200.00" arrivalSpeed="1.15" duration="400.10" routeLength="3704.50" waitingTime="83.00" waitingCount="4" stopTime="0.00" timeLoss="101.82" rerouteNo="0" devices="tripinfo_h8487c2:1 routing_h8487c2:1" vType="default_001" speedFactor="0.90" vaporized=""/>
    <tripinfo id="h20211c2:1" depart="0.00" departLane="-26416600#0_1" departPos="205.44" departSpeed="0.00" departDelay="0.00" arrival="401.90" arrivalLane="233673422#9_1" arrivalPos="230.00" arrivalSpeed="1.05" duration="401.90" routeLength="3923.01" waitingTime="72.10" waitingCount="6" stopTime="0.00" timeLoss="109.79" rerouteNo="1" devices="tripinfo_h20211c2:1 routing_h20211c2:1" vType="default_001" speedFactor="1.03" vaporized=""/>
    <tripinfo id="randUni6515:1" depart="94.00" departLane="-161678034#2.50_1" departPos="22.27" departSpeed="0.00" departDelay="0.00" arrival="415.00" arrivalLane="-174800513_2" arrivalPos="7.04" arrivalSpeed="0.73" duration="321.00" routeLength="2990.91" waitingTime="47.80" waitingCount="5" stopTime="0.00" timeLoss="76.77" rerouteNo="0" devices="tripinfo_randUni6515:1 routing_randUni6515:1" vType="random_001" speedFactor="0.90" vaporized=""/>
    <tripinfo id="h14396c1:1" depart="0.00" departLane="-115881050_1" departPos="28.29" departSpeed="0.00" departDelay="0.00" arrival="422.90" arrivalLane="41522169#1_1" arrivalPos="0.00" arrivalSpeed="0.00" duration="422.90" routeLength="4769.84" waitingTime="46.50" waitingCount="3" stopTime="0.00" timeLoss="83.70" rerouteNo="0" devices="tripinfo_h14396c1:1 routing_h14396c1:1" vType="default_001" speedFactor="1.01" vaporized=""/>
    <tripinfo id="carIn38211:1" depart="2.60" departLane="204095914#2_0" departPos="0.00" departSpeed="0.00" departDelay="2.60" arrival="425.60" arrivalLane="221257625.1575_0" arrivalPos="0.00" arrivalSpeed="0.00" duration="423.00" routeLength="8396.10" waitingTime="52.40" waitingCount="2" stopTime="0.00" timeLoss="90.00" rerouteNo="0" devices="tripinfo_carIn38211:1" vType="default_001" speedFactor="1.02" vaporized=""/>
    <tripinfo id="carIn27363:1" depart="13.30" departLane="325180705#0_1" departPos="0.00" departSpeed="0.00" departDelay="13.30" arrival="442.20" arrivalLane="42745545#3_1" arrivalPos="52.43" arrivalSpeed="0.72" duration="428.90" routeLength="4655.70" waitingTime="44.90" waitingCount="2" stopTime="0.00" timeLoss="117.13" rerouteNo="1" devices="tripinfo_carIn27363:1 routing_carIn27363:1" vType="default_001" speedFactor="1.08" vaporized=""/>
    <tripinfo id="carIn29689:1" depart="0.00" departLane="-107431496#4_1" departPos="0.00" departSpeed="0.00" departDelay="0.00" arrival="449.50" arrivalLane="128668757_1" arrivalPos="56.28" arrivalSpeed="1.02" duration="449.50" routeLength="5837.03" waitingTime="57.00" waitingCount="2" stopTime="0.00" timeLoss="90.14" rerouteNo="1" devices="tripinfo_carIn29689:1 routing_carIn29689:1" vType="default_001" speedFactor="1.06" vaporized=""/>
    <tripinfo id="carIn75460:1" depart="57.90" departLane="-233673422#10_1" departPos="0.00" departSpeed="0.00" departDelay="57.90" arrival="449.50" arrivalLane="26416602#2_1" arrivalPos="64.30" arrivalSpeed="1.10" duration="391.60" routeLength="3516.78" waitingTime="52.00" waitingCount="3" stopTime="0.00" timeLoss="122.40" rerouteNo="1" devices="tripinfo_carIn75460:1 routing_carIn75460:1" vType="default_001" speedFactor="1.03" vaporized=""/>
    <tripinfo id="carIn24985:1" depart="355.00" departLane="380271165#0_1" departPos="0.00" departSpeed="0.00" departDelay="0.00" arrival="450.90" arrivalLane="221257625.1575_0" arrivalPos="0.00" arrivalSpeed="0.00" duration="95.90" routeLength="2536.84" waitingTime="4.00" waitingCount="2" stopTime="0.00" timeLoss="22.99" rerouteNo="0" devices="tripinfo_carIn24985:1 routing_carIn24985:1" vType="default_001" speedFactor="1.01" vaporized=""/>
    <tripinfo id="randUni9334:1" depart="165.00" departLane="138265826#8_1" departPos="17.67" departSpeed="0.00" departDelay="0.00" arrival="454.40" arrivalLane="101731858_1" arrivalPos="54.27" arrivalSpeed="0.81" duration="289.40" routeLength="2855.80" waitingTime="50.60" waitingCount="3" stopTime="0.00" timeLoss="94.29" rerouteNo="1" devices="tripinfo_randUni9334:1 routing_randUni9334:1" vType="random_001" speedFactor="0.97" vaporized=""/>